21
Properties=species:S:1:pos:R:3 pbc="F F F"
C        3.42507980       0.27758742       1.09424390
C        2.27976241      -0.15329266       0.24302747
O        2.50394193      -0.77265385      -0.83210038
O        0.98083250       0.23378026       0.59687109
C       -0.20087766      -0.28078897       0.03942500
C       -0.26991926      -1.61969053      -0.39384964
C       -1.44981197      -2.13221241      -0.93320317
C       -2.57844580      -1.32289294      -1.03818269
C       -2.53478565       0.00016670      -0.59637093
C       -1.35346362       0.53894629      -0.04806759
C       -1.34464880       1.95301310       0.41240888
O       -2.39464394       2.64823551       0.34415672
O       -0.18669582       2.53423345       0.92202876
H        3.81778635       1.24673286       0.72266320
H        3.08951040       0.39905095       2.14544357
H        4.23334839      -0.48324212       1.06175129
H        0.57933521      -2.28083972      -0.28815628
H       -1.49148432      -3.16266144      -1.26202488
H       -3.49318438      -1.72364842      -1.45573505
H       -3.43039157       0.60239116      -0.68496429
H       -0.18124419       3.49778537       1.23476759
