29
Properties=species:S:1:pos:R:3 pbc="F F F"
C       -3.03211903      -1.06098584      -0.29219236
C       -4.35781944      -0.86956820      -0.67304482
C       -4.85365791       0.43343553      -0.76682192
C       -4.02924746       1.53270763      -0.48236520
C       -2.71153607       1.31306802      -0.11010990
C       -2.16710428       0.01501800      -0.00416667
C       -0.76996905      -0.17816120       0.34646871
C       -0.17537867      -1.37845180       0.57538141
C        1.24364050      -1.59135243       0.93805734
O        1.56944410      -2.56303586       1.62818402
C        2.27469214      -0.60235124       0.47720606
C        2.33890694      -0.08821277      -0.82853657
C        3.33856397       0.83714956      -1.16271887
C        4.32105892       1.19348998      -0.24714808
C        4.32113775       0.59578101       1.02252265
C        3.32400653      -0.31825307       1.36401233
Br       5.67503933       1.00577762       2.26347482
O        1.43668825      -0.52586862      -1.76419351
F       -6.15245147       0.64390340      -1.14334310
H       -2.65267619      -2.08218709      -0.22829337
H       -4.99886776      -1.72729476      -0.90100137
H       -4.42486342       2.55033256      -0.56170820
H       -2.07357044       2.17597832       0.10583139
H       -0.17004909       0.73674608       0.40642242
H       -0.76827345      -2.29264833       0.64060306
H        3.34822731       1.26606706      -2.17219390
H        5.11012009       1.90665238      -0.48706158
H        3.35955653      -0.79563132       2.34633573
H        1.67650135      -0.13210462      -2.62156677
