31
Properties=species:S:1:pos:R:3 pbc="F F F"
C       -3.83550144       1.28694623       1.22766501
C       -3.69365463      -0.10407484       1.32784616
C       -2.88720063      -0.79241377       0.41469456
C       -2.20871392      -0.09183451      -0.58532509
C       -2.37374428       1.29252252      -0.70524484
C       -3.17342826       1.98420415       0.20931041
C       -1.26302740      -0.83047475      -1.50150844
N       -0.04399908      -1.26754106      -0.80759101
C        0.13764305      -2.48108921      -0.18371592
C        1.38042210      -2.49080314       0.43292571
C        2.00418155      -1.22018501       0.18858192
C        1.06851997      -0.47012255      -0.60406251
C        1.32509304       0.83343025      -1.03402470
C        2.53229622       1.42738362      -0.66121878
C        3.46456795       0.69846190       0.12247404
C        3.20785838      -0.62307824       0.54861454
N        4.69541875       1.31731314       0.48259085
O        4.91730373       2.49116363       0.09954673
O        5.52143117       0.67096304       1.17097513
H       -4.46503284       1.82544697       1.93867607
H       -4.20865677      -0.65689427       2.11574637
H       -2.76812853      -1.87781596       0.47816516
H       -1.85862238       1.81610481      -1.51567920
H       -3.27639858       3.06767860       0.12168668
H       -0.95840885      -0.17834252      -2.32467112
H       -1.75125312      -1.73044736      -1.89599723
H       -0.62532814      -3.25114350      -0.23069386
H        1.81772932      -3.29815387       1.00327688
H        0.59746035       1.36745740      -1.64255700
H        2.78001476       2.44230030      -0.95855363
H        3.94115850      -1.15696198       1.14751591
