28
Properties=species:S:1:pos:R:3 pbc="F F F"
C       -3.11656194      -0.30863386      -0.73427443
C       -2.33927007       0.92199733      -0.31605861
C       -3.13388231       1.83995672       0.59553404
O       -1.15184614       0.55239311       0.48426285
P       -0.05687130      -0.43414235      -0.09580116
O       -0.11439903      -0.71279925      -1.55081588
C       -0.24803525      -1.88569886       1.04258026
F       -1.45812879      -2.51580720       0.86798195
F        0.74502073      -2.81433749       0.82261136
O        1.29441084       0.21536952       0.43596362
C        2.54989418      -0.27482348      -0.16236182
C        2.84614232       0.60142233      -1.35621512
C        3.58587299      -0.17244580       0.93824806
H       -3.41243418      -0.89782445       0.14492961
H       -2.53128723      -0.93714123      -1.41558991
H       -4.02469860       0.03044783      -1.24920774
H       -1.96281840       1.46389551      -1.19590275
H       -4.03412042       2.16831820       0.05683973
H       -2.55098936       2.72288128       0.88864308
H       -3.44126950       1.30777851       1.50847249
H       -0.18429630      -1.54976859       2.08931449
H        2.39772454      -1.31914016      -0.46850949
H        3.78872067       0.26600162      -1.80877356
H        2.03948326       0.52545445      -2.09615326
H        2.95604410       1.65045353      -1.04357890
H        3.68904007       0.86847173       1.27617425
H        4.54904481      -0.51755197       0.53815407
H        3.31951031      -0.79472698       1.80353280
