29
Properties=species:S:1:pos:R:3 pbc="F F F"
C        5.67830305       0.39194717      -0.30580249
C        4.22060466       0.11294013      -0.09922305
C        3.23599815       0.95391405      -0.63950495
C        1.87587750       0.67776800      -0.47672575
C        1.48319743      -0.46145916       0.23614962
C        2.44723034      -1.31847103       0.78468861
C        3.80303731      -1.02425094       0.61084484
C        0.06475641      -0.77769424       0.41786970
N       -0.38792218      -1.82130028       1.06731845
O       -1.83822633      -1.65117563       0.94593610
C       -2.06570271      -0.51314260       0.22790574
N       -0.91665307       0.05304610      -0.11612726
C       -3.40385396      -0.03249089      -0.08662581
C       -3.55732927       1.14717769      -0.83490453
C       -4.85536963       1.59496803      -1.12836845
N       -5.96445142       0.95871171      -0.73315721
C       -5.81318078      -0.16158503      -0.02307638
C       -4.56690321      -0.70442933       0.32962179
H        5.86680514       1.46351878      -0.43519839
H        6.27364598       0.02577482       0.53839401
H        6.04526216      -0.11863135      -1.20996784
H        3.54334113       1.84474720      -1.19479344
H        1.09724619       1.32339992      -0.89046868
H        2.08654937      -2.19250234       1.33092356
H        4.56340877      -1.68547447       1.03701236
H       -2.67807499       1.69685754      -1.17708665
H       -4.99687599       2.51184978      -1.71071285
H       -6.73103650      -0.66881279       0.29102242
H       -4.50968353      -1.62520082       0.91209027
