24
Properties=species:S:1:pos:R:3 pbc="F F F"
C        3.79593614      -0.60949634       1.06970341
C        4.48942328      -0.23981251      -0.08774576
C        3.73258219       0.15344118      -1.20428098
N        2.40096692       0.19139189      -1.20585929
C        1.72952927      -0.16369064      -0.10869843
C        2.40087325      -0.57475639       1.06410633
C        0.24502031      -0.11519031      -0.15848658
N       -0.41717277      -0.56407022       0.91521668
C       -1.75346908      -0.54063571       0.92797473
C       -2.51089278      -0.04785012      -0.15178099
C       -1.82601022       0.42263858      -1.29632739
C       -0.43837594       0.37974143      -1.29862143
S       -4.25492746       0.02542083      -0.05691741
O       -4.83259927      -0.07646214      -1.38004319
O       -4.72015017      -0.81571577       1.01711055
O       -4.43604861       1.57640280       0.40533922
H        4.32818796      -0.92212403       1.96880978
H        5.57606247      -0.25081042      -0.13807716
H        4.22390837       0.45304780      -2.13843362
H        1.79435051      -0.85127914       1.92347927
H       -2.25622132      -0.92502685       1.81906926
H       -2.39322918       0.78910056      -2.15182275
H        0.16301595       0.71785458      -2.14003609
H       -5.04075983       1.98788092      -0.24775374
