32
Properties=species:S:1:pos:R:3 pbc="F F F"
C       -2.91071297       1.93710299       0.39682845
C       -2.37610623       0.56400510       0.20288669
N       -3.23287414      -0.45124443      -0.09367959
C       -2.81445118      -1.73453628      -0.28198818
C       -1.47995456      -2.08785943      -0.19082162
C       -0.55787649      -1.08428071       0.09057440
C       -1.03098669       0.24163831       0.28348975
N        0.06556436       1.05433635       0.51753142
C        1.22862332       0.30072620       0.48241581
C        0.86899480      -1.04671013       0.21917684
C        1.86620396      -2.02586178       0.12268138
C        3.19080140      -1.65624659       0.28499981
C        3.54558618      -0.29765054       0.54254973
C        2.54473066       0.70412448       0.64841113
O        4.87161812      -0.02938629       0.67115349
C        5.27891528       1.33582958       0.91275840
C       -4.66458255      -0.16266480      -0.23897319
H       -3.70377543       1.97400320       1.15621315
H       -3.31748469       2.36336887      -0.53258825
H       -2.10367014       2.59596153       0.73244698
H       -3.60981494      -2.44459959      -0.50688697
H       -1.15662290      -3.11290842      -0.33853443
H        0.04003619       2.05538232       0.68957074
H        1.57732056      -3.05620092      -0.07698955
H        4.00116176      -2.37860213       0.21873845
H        2.78339960       1.75190441       0.84730761
H        6.36564822       1.27918514       0.98204041
H        4.85548567       1.71643709       1.85313750
H        4.98351023       1.99146315       0.08117460
H       -4.85257231       0.51372598      -1.08263087
H       -5.07166112       0.29533922       0.66986375
H       -5.18445398      -1.10578187      -0.42218245
