35
Properties=species:S:1:pos:R:3 pbc="F F F"
C       -4.92314822       2.29012110       0.47664074
N       -3.78148785       1.39619669       0.35508246
C       -3.81018803      -0.00707759       0.50345823
C       -4.86818447      -0.85614251       0.78933000
C       -4.58653688      -2.23235324       0.88418504
C       -3.28226974      -2.71901055       0.68860007
C       -2.22035802      -1.84320691       0.40118555
C       -2.49046401      -0.48417125       0.31563887
C       -1.65330341       0.67681598       0.05560458
C       -2.51032057       1.80240940       0.09494986
Cl      -2.09040570       3.41468278      -0.12879477
C       -0.24251648       0.61591312      -0.17201627
N        0.34070317      -0.53799530      -0.05814501
O        1.65458169      -0.60313536      -0.59387550
C        2.52724579       0.18727521       0.09594694
O        2.20241611       0.98763105       0.95436468
C        3.93365772      -0.03682825      -0.35687284
C        4.93435176       0.77330269       0.19337610
C        6.26079649       0.63642229      -0.22775113
C        6.59637911      -0.32312136      -1.19944871
C        5.59177216      -1.14042519      -1.73160840
C        4.26710430      -0.99887098      -1.31131413
Cl       7.47127680       1.64632284       0.44245605
H       -5.03285358       2.89061433      -0.43356605
H       -4.79251471       2.96639455       1.33017628
H       -5.81034483       1.67533400       0.62684258
H       -5.87019840      -0.45295704       0.93205835
H       -5.39231685      -2.93097219       1.11306279
H       -3.08026500      -3.78756225       0.75942712
H       -1.18990995      -2.16497215       0.23840574
H        0.21901413       1.59099927      -0.39688592
H        4.66786433       1.51082676       0.94333388
H        7.63077232      -0.41457312      -1.51863155
H        5.84065602      -1.89015183      -2.48233852
H        3.48899481      -1.63773498      -1.72581867
