36
Properties=species:S:1:pos:R:3 pbc="F F F"
C       -0.38504536      -1.70761568      -1.04393288
N       -0.63956181      -1.29661576       0.32887918
C       -2.01823718      -1.50761276       0.80259991
C       -2.97874845      -0.44462751       0.34333860
C       -3.52178077      -0.49675512      -0.94586324
C       -4.32750618       0.54721660      -1.41112186
C       -4.62659028       1.63036547      -0.57475455
C       -4.12373434       1.65791082       0.73284332
C       -3.31148204       0.61892748       1.18874501
C        0.08300977      -0.32301485       0.98300922
O       -0.38121951       0.29853408       1.93947699
C        1.51433842      -0.04804162       0.54764674
C        1.97238836       1.27672730       0.57720892
C        3.30512829       1.57523303       0.21019531
C        4.20422155       0.55097407      -0.12005434
C        3.75495988      -0.77356394      -0.09158562
C        2.41445848      -1.07919475       0.24515160
N        4.64364141      -1.84812711      -0.44701178
O        5.83033318      -1.57456312      -0.72912140
O        4.19251671      -3.01603722      -0.46146690
N        3.73109682       2.94834844       0.15371959
O        2.90374970       3.84206724       0.43520594
O        4.91168742       3.19392360      -0.17771211
H       -0.67206019      -0.93187132      -1.77529554
H       -0.97636475      -2.61032250      -1.24044692
H        0.67501576      -1.94024275      -1.17814558
H       -2.32494874      -2.48183467       0.40907154
H       -1.97588196      -1.52887105       1.89525074
H       -3.29697117      -1.35656372      -1.58485082
H       -4.71748272       0.50794702      -2.43025201
H       -5.25313876       2.44752807      -0.93722407
H       -4.35395294       2.48879650       1.40190533
H       -2.88887937       0.63719673       2.19456849
H        1.30524707       2.08390128       0.87161404
H        5.23004490       0.78080685      -0.39383736
H        2.10174878      -2.12092913       0.28224654
