26
Properties=species:S:1:pos:R:3 pbc="F F F"
C        4.92321522       0.30533439       0.09541241
C        4.44503916       0.73203908      -1.15611121
C        3.07553148       0.73581239      -1.44227193
C        2.17567214       0.30547875      -0.45859628
C        2.62656914      -0.12425991       0.79564493
C        4.00070894      -0.12110427       1.06398536
N        0.83037803       0.31224885      -0.74799986
N       -0.11041664      -0.07819680       0.11943749
C       -1.26687139       0.08811860      -0.56382656
N       -1.00834222       0.57307727      -1.82460026
N        0.27986723       0.71250636      -1.94249039
C       -2.57968852      -0.21371161      -0.01125863
C       -2.66403517      -0.70510182       1.30198882
N       -3.82509036      -1.00566381       1.88165416
C       -4.95280515      -0.83777366       1.19989667
C       -4.97775287      -0.34994079      -0.12572729
C       -3.76807939      -0.03103853      -0.74524477
H        5.99149423       0.30626592       0.30814470
H        5.13568023       1.06910317      -1.92945063
H        2.68885827       1.06382088      -2.40816172
H        1.89015526      -0.45131404       1.53266139
H        4.34079728      -0.45794899       2.04441783
H       -1.74362497      -0.85049217       1.88105950
H       -5.87871524      -1.09931619       1.72131342
H       -5.92549049      -0.22864822      -0.64506508
H       -3.70305418       0.35070516      -1.76554779
