29
Properties=species:S:1:pos:R:3 pbc="F F F"
C       -3.32437796       0.29799744       1.07308272
C       -2.85672815       0.69184829      -0.34087939
C       -1.59468160      -0.17634537      -0.12646757
C       -1.87957021      -0.13327105       1.39927860
C       -0.25569700       0.31885007      -0.62376215
C       -0.16651635       1.34694612      -1.54330498
C        1.08196512       1.90777099      -1.89044702
C        2.23397873       1.41688652      -1.32446168
C        2.19688356       0.32054255      -0.43151507
C        3.38290655      -0.20112761       0.13618644
C        3.35535183      -1.30654441       0.95905664
C        2.13029875      -1.94860362       1.22965095
C        0.95773796      -1.45443734       0.68773664
C        0.94495485      -0.28920860      -0.11391632
O       -1.89222330      -1.48976961      -0.54129030
H       -4.00275674      -0.56455527       1.04627807
H       -3.73078310       1.10816832       1.68688585
H       -2.60526695       1.75853153      -0.38740162
H       -3.47751169       0.37931063      -1.18525871
H       -1.73969165      -1.08979042       1.91145637
H       -1.31002167       0.67395033       1.88229807
H       -1.07505402       1.74867022      -1.99700570
H        1.11580820       2.73867471      -2.59813466
H        3.20811307       1.84860119      -1.56079367
H        4.32439228       0.29746311      -0.10382124
H        4.28129027      -1.69303237       1.38802840
H        2.09337507      -2.83858214       1.86188190
H        0.01410155      -1.97058138       0.86778136
H       -1.41027742      -1.69836285      -1.36114196
