19
Properties=species:S:1:pos:R:3 pbc="F F F"
C        2.70030713       0.26420240       0.21550443
C        1.43675465       0.15520309      -0.62108370
O        0.42525697      -0.35554679       0.27728375
C       -0.88743996       0.07463389       0.05375973
C       -1.50096126      -0.62150599      -1.19550431
F       -2.74150900      -0.15316444      -1.46849014
F       -1.57039007      -1.96403342      -0.99365374
F       -0.73365277      -0.40794227      -2.29786761
C       -1.62030256      -0.35394994       1.36869014
F       -1.31014302      -1.61845503       1.73425300
F       -1.23012067       0.47423038       2.38899338
F       -2.96650396      -0.24735492       1.25306464
O       -1.03733050       1.45014855      -0.14122354
H        2.95266276      -0.70786968       0.65999632
H        3.52521910       0.58885142      -0.43363079
H        2.58048812       0.99973563       1.02316216
H        1.56514840      -0.55661283      -1.45192659
H        1.11882015       1.11321011      -1.05041468
H       -0.70630350       1.86621984       0.67908754
