17
Properties=species:S:1:pos:R:3 pbc="F F F"
C        3.40533405       0.62715737      -0.92584574
O        1.97621695       0.51194174      -1.22767368
C        1.30129897      -0.09239765      -0.22027639
O        1.77688841      -0.47267031       0.83971654
N       -0.03609888      -0.21259915      -0.55390420
S       -1.14799451      -1.00638160       0.41687490
O       -1.37768557      -0.23607091       1.61254663
O       -0.81675854      -2.39929729       0.49060642
O       -2.39449186      -0.89522648      -0.57161233
C       -3.23563589       0.32307626      -0.50934639
H        3.85126829       1.13355478      -1.78904861
H        3.83844326      -0.37145746      -0.78043720
H        3.54542981       1.20628117      -0.00401067
H       -0.36123434       0.08341704      -1.47605076
H       -4.08454324       0.11950718      -1.17156706
H       -2.67593481       1.19401016      -0.88183713
H       -3.56450209       0.48715514       0.52186590
